New_England_modified_wind_es_V2/PowerFlowData_V2.m
function [busdata,linedata]= PowerFlowData

%%%%%%%%%%%%%%%%%%%%%%%%%%%%%%%%%%%%%%%%%%%%%%%%%%%%%%%%%%%%%%%%%%%%%%%%%%%%%%%%%%%%%%%%%%%%%%%%%%%%%%%%%%%%%%%%%%%%%%%
%%%  Bus No. Volt Mag   Volt angle    Pg   Qg   Pl   Ql  Gshunt Bshunt Bus type (=1 swing bus, =2 PV bus, =3 PQ bus)
%%%%%%%%%%%%%%%%%%%%%%%%%%%%%%%%%%%%%%%%%%%%%%%%%%%%%%%%%%%%%%%%%%%%%%%%%%%%%%%%%%%%%%%%%%%%%%%%%%%%%%%%%%%%%%%%%%%%%%%
busdata=[
   1   1.048  -9.43   0.0000   0.0000   0.0000   0.0000 0.00000 0.00000 3 99  -99 1.0   0     0;
   2   1.0505 -6.89   0.0000   0.0000   0.0000   0.0000 0.00000 0.00000 3 99  -99 1.0   0     0;
   3   1.0341 -9.73   0.0000   0.0000   3.2200   0.0240 0.00000 0.00000 3 99  -99 1.0   0     0;
   4   1.0116 -10.53  0.0000   0.0000   5.0000   1.8400 0.00000 1.00000 3 99  -99 1.0   0     0;
   5   1.0165 -9.38   0.0000   0.0000   0.0000   0.0000 0.00000 2.00000 3 99  -99 1.0   0     0;
   6   1.0172 -8.68   0.0000   0.0000   0.0000   0.0000 0.00000 0.00000 3 99 -99  1.0   1.17  0.98;  %%%%电压限制 通过调节tap来实现
   7   1.0067 -10.84  0.0000   0.0000   2.3380   0.8400 0.00000 0.00000 3 99  -99 1.0   0     0;%原版无功打成8.4
   8   1.0057 -11.34  0.0000   0.0000   5.2200   1.7600 0.00000 0.00000 3 99  -99 1.0   0     0;
   9   1.0322 -11.15  0.0000   0.0000   0.0000   0.0000 0.00000 0.00000 3 99  -99 1.0   0     0;
  10   1.0235 -6.31   0.0000   0.0000   0.0000   0.0000 0.00000 0.00000 3 99  -99 1.0   0     0;
  11   1.0201 -7.12   0.0000   0.0000   0.0000   0.0000 0.00000 0.00000 3 99  -99 1.0   0     0;
  12   1.0072 -7.14   0.0000   0.0000   0.0750   0.8800 0.00000 0.00000 3 99  -99 1.0   0     0;%原版有功打成0.085
  13   1.0207 -7.02   0.0000   0.0000   0.0000   0.0000 0.00000 0.00000 3 99  -99 1.0   0     0;
  14   1.0181 -8.66   0.0000   0.0000   0.0000   0.0000 0.00000 0.00000 3 99  -99 1.0   0     0;
  15   1.0194 -9.06   0.0000   0.0000   3.2000   1.5300 0.00000 0.00000 3 99  -99 1.0   0     0;
  16   1.0346 -7.66   0.0000   0.0000   3.2900   0.3230 0.00000 0.00000 3 99  -99 1.0   0     0;%原版有功打成3.294，无功打成3.23
  17   1.0365 -8.65   0.0000   0.0000   0.0000   0.0000 0.00000 0.00000 3 99  -99 1.0   0     0;
  18   1.0343 -9.49   0.0000   0.0000   1.5800   0.3000 0.00000 0.00000 3 99  -99 1.0   0     0;
  19   1.0509 -3.04   0.0000   0.0000   0.0000   0.0000 0.00000 0.00000 3 99  -99 1.0   0     0;
  20   0.9914 -4.45   0.0000   0.0000   6.2800   1.0300 0.00000 0.00000 3 99  -99 1.0   0     0;%原版有功打成6.800
  21   1.0337 -5.26   0.0000   0.0000   2.7400   1.1500 0.00000 0.00000 3 99  -99 1.0   0     0;
  22   1.0509 -0.82   0.0000   0.0000   0.0000   0.0000 0.00000 0.00000 3 99  -99 1.0   0     0;
  23   1.0459 -1.02   0.0000   0.0000   2.4750   0.8460 0.00000 0.00000 3 99  -99 1.0   0     0;
  24   1.0399 -7.54   0.0000   0.0000   3.0860   -0.920 0.00000 0.00000 3 99  -99 1.0   0     0;%原版无功打成0.922
  25   1.0587 -5.51   0.0000   0.0000   2.2400   0.4720 0.00000 0.00000 3 99  -99 1.0   0     0;
  26   1.0536 -6.77   0.0000   0.0000   1.3900   0.1700 0.00000 0.00000 3 99  -99 1.0   0     0;
  27   1.0399 -8.78   0.0000   0.0000   2.8100   0.7550 0.00000 0.00000 3 99  -99 1.0   0     0;
  28   1.0509 -3.27   0.0000   0.0000   2.0600   0.2760 0.00000 0.00000 3 99  -99 1.0   0     0;
  29   1.0505 -0.51   0.0000   0.0000   2.8350   0.2690 0.00000 0.00000 3 99  -99 1.0   0     0;%原版无功打成1.269
  %  1   1.048  -9.43   0.0000   0.0000   0.0000   0.0000 0.00000 0.00000 3 99  -99 1.0   0     0;
  %  2   1.0505 -6.89   0.0000   0.0000   0.0000   0.0000 0.00000 0.00000 3 99  -99 1.0   0     0;
  %  3   1.0341 -9.73   0.0000   0.0000   0.0000   0.0000 0.00000 0.00000 3 99  -99 1.0   0     0;
  %  4   1.0116 -10.53  0.0000   0.0000   0.0000   0.0000 0.00000 1.00000 3 99  -99 1.0   0     0;
  %  5   1.0165 -9.38   0.0000   0.0000   0.0000   0.0000 0.00000 2.00000 3 99  -99 1.0   0     0;
  %  6   1.0172 -8.68   0.0000   0.0000   0.0000   0.0000 0.00000 0.00000 3 99 -99  1.0   1.17  0.98;  %%%%电压限制 通过调节tap来实现
  %  7   1.0067 -10.84  0.0000   0.0000   0.0000   0.0000 0.00000 0.00000 3 99  -99 1.0   0     0;%原版无功打成8.4
  %  8   1.0057 -11.34  0.0000   0.0000   0.0000   0.0000 0.00000 0.00000 3 99  -99 1.0   0     0;
  %  9   1.0322 -11.15  0.0000   0.0000   0.0000   0.0000 0.00000 0.00000 3 99  -99 1.0   0     0;
  % 10   1.0235 -6.31   0.0000   0.0000   0.0000   0.0000 0.00000 0.00000 3 99  -99 1.0   0     0;
  % 11   1.0201 -7.12   0.0000   0.0000   0.0000   0.0000 0.00000 0.00000 3 99  -99 1.0   0     0;
  % 12   1.0072 -7.14   0.0000   0.0000   0.0000   0.0000 0.00000 0.00000 3 99  -99 1.0   0     0;%原版有功打成0.085
  % 13   1.0207 -7.02   0.0000   0.0000   0.0000   0.0000 0.00000 0.00000 3 99  -99 1.0   0     0;
  % 14   1.0181 -8.66   0.0000   0.0000   0.0000   0.0000 0.00000 0.00000 3 99  -99 1.0   0     0;
  % 15   1.0194 -9.06   0.0000   0.0000   0.0000   0.0000 0.00000 0.00000 3 99  -99 1.0   0     0;
  % 16   1.0346 -7.66   0.0000   0.0000   0.0000   0.0000 0.00000 0.00000 3 99  -99 1.0   0     0;%原版有功打成3.294，无功打成3.23
  % 17   1.0365 -8.65   0.0000   0.0000   0.0000   0.0000 0.00000 0.00000 3 99  -99 1.0   0     0;
  % 18   1.0343 -9.49   0.0000   0.0000   0.0000   0.0000 0.00000 0.00000 3 99  -99 1.0   0     0;
  % 19   1.0509 -3.04   0.0000   0.0000   0.0000   0.0000 0.00000 0.00000 3 99  -99 1.0   0     0;
  % 20   0.9914 -4.45   0.0000   0.0000   0.0000   0.0000 0.00000 0.00000 3 99  -99 1.0   0     0;%原版有功打成6.800
  % 21   1.0337 -5.26   0.0000   0.0000   0.0000   0.0000 0.00000 0.00000 3 99  -99 1.0   0     0;
  % 22   1.0509 -0.82   0.0000   0.0000   0.0000   0.0000 0.00000 0.00000 3 99  -99 1.0   0     0;
  % 23   1.0459 -1.02   0.0000   0.0000   0.0000   0.0000 0.00000 0.00000 3 99  -99 1.0   0     0;
  % 24   1.0399 -7.54   0.0000   0.0000   0.0000   0.0000 0.00000 0.00000 3 99  -99 1.0   0     0;%原版无功打成0.922
  % 25   1.0587 -5.51   0.0000   0.0000   0.0000   0.0000 0.00000 0.00000 3 99  -99 1.0   0     0;
  % 26   1.0536 -6.77   0.0000   0.0000   0.0000   0.0000 0.00000 0.00000 3 99  -99 1.0   0     0;
  % 27   1.0399 -8.78   0.0000   0.0000   0.0000   0.0000 0.00000 0.00000 3 99  -99 1.0   0     0;
  % 28   1.0509 -3.27   0.0000   0.0000   0.0000   0.0000 0.00000 0.00000 3 99  -99 1.0   0     0;
  % 29   1.0505 -0.51   0.0000   0.0000   0.0000   0.0000 0.00000 0.00000 3 99  -99 1.0   0     0;%原版无功打成1.269  
  30   1.0475 -4.47   2.5000   1.3621   0.0000   0.0000 0.00000 0.00000 2  8   -5 1.0   0     0;
  31   0.9820  0.00   5.7293   1.7036   0.0000   0.0000 0.00000 0.00000 2  8   -5 1.0   0     0;%原版电压打成1.040
  32   0.9831  1.63   6.5000   1.7590   0.0000   0.0000 0.00000 0.00000 2  8   -5 1.0   0     0;
  33   0.9972  2.18   6.3200   1.0335   0.0000   0.0000 0.00000 0.00000 2  8   -5 1.0   0     0;
  34   1.0123  0.74   5.0800   1.6400   0.0000   0.0000 0.00000 0.00000 2  4   -3 1.0   0     0;
  35   1.0493  4.14   6.5000   2.0884   0.0000   0.0000 0.00000 0.00000 2  8   -5 1.0   0     0;
  % 32   0.9831  1.63   0.0000   0.0000   0.0000   0.0000 0.00000 0.00000 3  8   -5 1.0   0     0;
  % 33   0.9972  2.18   0.0000   0.0000   0.0000   0.0000 0.00000 0.00000 3  8   -5 1.0   0     0;
  % 34   1.0123  0.74   0.0000   0.0000   0.0000   0.0000 0.00000 0.00000 3  4   -3 1.0   0     0;
  % 35   1.0493  4.14   0.0000   0.0000   0.0000   0.0000 0.00000 0.00000 3  8   -5 1.0   0     0;  
  36   1.0635  6.83   0.6000   0.9688   0.0000   0.0000 0.00000 0.00000 2  8   -5 1.0   0     0;
  37   1.0278  1.26   5.4000  -0.0444   0.0000   0.0000 0.00000 0.00000 2  8   -5 1.0   0     0;
  38   1.0265  6.55   8.3000   0.1939   0.0000   0.0000 0.00000 0.00000 2  8   -5 1.0   0     0;
  % 37   1.0278  1.26   0.0000   0.0000   0.0000   0.0000 0.00000 0.00000 3  8   -5 1.0   0     0;
  % 38   1.0265  6.55   0.0000   0.0000   0.0000   0.0000 0.00000 0.00000 3  8   -5 1.0   0     0;
  39   1.0300 -10.96  10.000   0.6846   11.040   2.5000 0.00000 0.00000 1  15 -10 1.0   0     0];

busdata=[
   1   1.048  -9.43   0.0000   0.0000   0.0000   0.0000 0.00000 0.00000 3 99  -99 1.0   0     0;
   2   1.0505 -6.89   0.0000   0.0000   0.0000   0.0000 0.00000 0.00000 3 99  -99 1.0   0     0;
   3   1.0341 -9.73   0.0000   0.0000   3.2200   0.0240 0.00000 0.00000 3 99  -99 1.0   0     0;
   4   1.0116 -10.53  0.0000   0.0000   5.0000   1.8400 0.00000 1.00000 3 99  -99 1.0   0     0;
   5   1.0165 -9.38   0.0000   0.0000   0.0000   0.0000 0.00000 2.00000 3 99  -99 1.0   0     0;
   6   1.0172 -8.68   0.0000   0.0000   0.0000   0.0000 0.00000 0.00000 3 99 -99  1.0   1.17  0.98;  %%%%电压限制 通过调节tap来实现
   7   1.0067 -10.84  0.0000   0.0000   2.3380   0.8400 0.00000 0.00000 3 99  -99 1.0   0     0;%原版无功打成8.4
   8   1.0057 -11.34  0.0000   0.0000   5.2200   1.7600 0.00000 0.00000 3 99  -99 1.0   0     0;
   9   1.0322 -11.15  0.0000   0.0000   0.0000   0.0000 0.00000 0.00000 3 99  -99 1.0   0     0;
  10   1.0235 -6.31   0.0000   0.0000   0.0000   0.0000 0.00000 0.00000 3 99  -99 1.0   0     0;
  11   1.0201 -7.12   0.0000   0.0000   0.0000   0.0000 0.00000 0.00000 3 99  -99 1.0   0     0;
  12   1.0072 -7.14   0.0000   0.0000   0.0750   0.8800 0.00000 0.00000 3 99  -99 1.0   0     0;%原版有功打成0.085
  13   1.0207 -7.02   0.0000   0.0000   0.0000   0.0000 0.00000 0.00000 3 99  -99 1.0   0     0;
  14   1.0181 -8.66   0.0000   0.0000   0.0000   0.0000 0.00000 0.00000 3 99  -99 1.0   0     0;
  15   1.0194 -9.06   0.0000   0.0000   3.2000   1.5300 0.00000 0.00000 3 99  -99 1.0   0     0;
  16   1.0346 -7.66   0.0000   0.0000   3.2900   0.3230 0.00000 0.00000 3 99  -99 1.0   0     0;%原版有功打成3.294，无功打成3.23
  17   1.0365 -8.65   0.0000   0.0000   0.0000   0.0000 0.00000 0.00000 3 99  -99 1.0   0     0;
  18   1.0343 -9.49   0.0000   0.0000   1.5800   0.3000 0.00000 0.00000 3 99  -99 1.0   0     0;
  19   1.0509 -3.04   0.0000   0.0000   0.0000   0.0000 0.00000 0.00000 3 99  -99 1.0   0     0;
  20   0.9914 -4.45   0.0000   0.0000   6.2800   1.0300 0.00000 0.00000 3 99  -99 1.0   0     0;%原版有功打成6.800
  21   1.0337 -5.26   0.0000   0.0000   2.7400   1.1500 0.00000 0.00000 3 99  -99 1.0   0     0;
  22   1.0509 -0.82   0.0000   0.0000   0.0000   0.0000 0.00000 0.00000 3 99  -99 1.0   0     0;
  23   1.0459 -1.02   0.0000   0.0000   2.4750   0.8460 0.00000 0.00000 3 99  -99 1.0   0     0;
  24   1.0399 -7.54   0.0000   0.0000   3.0860   -0.920 0.00000 0.00000 3 99  -99 1.0   0     0;%原版无功打成0.922
  25   1.0587 -5.51   0.0000   0.0000   2.2400   0.4720 0.00000 0.00000 3 99  -99 1.0   0     0;
  26   1.0536 -6.77   0.0000   0.0000   1.3900   0.1700 0.00000 0.00000 3 99  -99 1.0   0     0;
  27   1.0399 -8.78   0.0000   0.0000   2.8100   0.7550 0.00000 0.00000 3 99  -99 1.0   0     0;
  28   1.0509 -3.27   0.0000   0.0000   2.0600   0.2760 0.00000 0.00000 3 99  -99 1.0   0     0;
  29   1.0505 -0.51   0.0000   0.0000   2.8350   0.2690 0.00000 0.00000 3 99  -99 1.0   0     0;%原版无功打成1.269
  30   1.0475 -4.47   2.5000   1.3621   0.0000   0.0000 0.00000 0.00000 2  8   -5 1.0   0     0;
  31   0.9820  0.00   5.7293   1.7036   0.0000   0.0000 0.00000 0.00000 2  8   -5 1.0   0     0;%原版电压打成1.040
  32   0.9650  1.63   0.0427   0.0000   1.0000   0.0000 0.00000 0.00000 2  8   -5 1.0   0     0;%风机
  % 33   0.9360  2.18   0.0000   0.0000   0.0000   0.0000 0.00000 0.00000 2  8   -5 1.0   0     0;%风机
  % 34   0.9683  0.74   3.0000   0.0000   0.0000   0.0000 0.00000 0.00000 2  4   -3 1.0   0     0;%风机
  33   0.9307  2.18   0.0428   0.0000   0.0000   0.0000 0.00000 0.00000 2  8   -5 1.0   0     0;%风机
  34   0.9823  0.74   3.7800   0.0000   0.0000   0.0000 0.00000 0.00000 2  4   -3 1.0   0     0;%风机
  35   0.9750  4.14   4.5000   0.0884   0.0000   0.0000 0.00000 0.00000 2  8   -5 1.0   0     0;%风机
  36   0.9981  6.83   3.2000   0.9688   0.0000   0.0000 0.00000 0.00000 2  8   -5 1.0   0     0;%风机
  37   1.0278  1.26   5.4000  -0.0444   0.0000   0.0000 0.00000 0.00000 2  8   -5 1.0   0     0;
  38   1.0265  6.55   8.6858   0.1939   0.0000   0.0000 0.00000 0.00000 2  8   -5 1.0   0     0;
  39   1.0300 -10.96  28.373   0.6846   11.040   2.5000 0.00000 0.00000 1  15 -10 1.0   0     0];

%%%%%%%%%%%%%%%%%%%%%%%%%%%%%%%%%%%%%%%%%%%%%%%%%%%%%%%%%%%%%%%%%%%%%%%%%%%%%%%%%%  
%%%  From Bus     To Bus    R (p.u.)  X (p.u.)  B(p.u.)    tap (tap=1 for line)
%%%%%%%%%%%%%%%%%%%%%%%%%%%%%%%%%%%%%%%%%%%%%%%%%%%%%%%%%%%%%%%%%%%%%%%%%%%%%%%%%%

% linedata=[1   2 0.00350  0.04110 0.69870 0.0000;
%    1  39 0.00100  0.02500 0.75000 0.0000;
%    2   3 0.00130  0.01510 0.25720 0.0000;
%    2  25 0.00700  0.00860 0.14600 0.0000;
%    2  30 0.00000  0.01810 0.00000 1.0250;
%    3   4 0.00130  0.02130 0.22140 0.0000;
%    3  18 0.00110  0.01330 0.21380 0.0000;
%    4   5 0.00080  0.01280 0.13420 0.0000;
%    4  14 0.00080  0.01290 0.13820 0.0000;
%    5   8 0.00080  0.01120 0.14760 0.0000;
%    6   5 0.00020  0.00260 0.04340 0.0000;
%    6   7 0.00060  0.00920 0.11300 0.0000;
%    6  11 0.00070  0.00820 0.13890 0.0000;
%    7   8 0.00040  0.00460 0.07800 0.0000;
%    8   9 0.00230  0.03630 0.38040 0.0000;
%    9  39 0.00100  0.02500 1.20000 0.0000;
%   10  11 0.00040  0.00430 0.07290 0.0000;
%   10  13 0.00040  0.00430 0.07290 0.0000;
%   10  32 0.00000  0.02000 0.00000 1.0700;
%   12  11 0.00160  0.04350 0.00000 1.0060;
%   12  13 0.00160  0.04350 0.00000 1.0060;
%   13  14 0.00090  0.01010 0.17230 0.0000;
%   14  15 0.00180  0.02170 0.36600 0.0000;
%   15  16 0.00090  0.00940 0.17100 0.0000;
%   16  17 0.00070  0.00890 0.13420 0.0000;
%   16  19 0.00160  0.01950 0.30400 0.0000;
%   16  21 0.00080  0.01350 0.25480 0.0000;
%   16  24 0.00030  0.00590 0.06800 0.0000;
%   17  18 0.00070  0.00820 0.13190 0.0000;
%   17  27 0.00130  0.01730 0.32160 0.0000;
%   19  33 0.00070  0.01420 0.00000 1.0700;
%   19  20 0.00070  0.01380 0.00000 1.0600;
%   20  34 0.00090  0.01800 0.00000 1.0090;
%   21  22 0.00080  0.01400 0.25650 0.0000;
%   22  23 0.00060  0.00960 0.18460 0.0000;
%   22  35 0.00000  0.01430 0.00000 1.0250;
%   23  24 0.00220  0.03500 0.36100 0.0000;
%   23  36 0.00050  0.02720 0.00000 1.0000;
%   25  26 0.00320  0.03230 0.51300 0.0000;
%   25  37 0.00060  0.02320 0.00000 1.0250;
%   26  27 0.00140  0.01470 0.23960 0.0000;
%   26  28 0.00430  0.04740 0.78020 0.0000;
%   26  29 0.00570  0.06250 1.02900 0.0000;
%   28  29 0.00140  0.01510 0.24900 0.0000;
%   29  38 0.00080  0.01560 0.00000 1.0250;
%   31   6 0.00000  0.02500 0.00000 0.9000];
% % 31   6 0.00000  0.02500 0.00000 1.0000];

linedata=[1   2 0.00350  0.04110 0.69870 1.0000;
   1  39 0.00100  0.02500 0.75000 1.0000;
   2   3 0.00130  0.01510 0.25720 1.0000;
   2  25 0.00700  0.00860 0.14600 1.0000;
   2  30 0.00000  0.01810 0.00000 1.0250;
   3   4 0.00130  0.02130 0.22140 1.0000;
   3  18 0.00110  0.01330 0.21380 1.0000;
   4   5 0.00080  0.01280 0.13420 1.0000;
   4  14 0.00080  0.01290 0.13820 1.0000;
   5   8 0.00080  0.01120 0.14760 1.0000;
   6   5 0.00020  0.00260 0.04340 1.0000;
   6   7 0.00060  0.00920 0.11300 1.0000;
   6  11 0.00070  0.00820 0.13890 1.0000;
   7   8 0.00040  0.00460 0.07800 1.0000;
   8   9 0.00230  0.03630 0.38040 1.0000;
   9  39 0.00100  0.02500 1.20000 1.0000;
  10  11 0.00040  0.00430 0.07290 1.0000;
  10  13 0.00040  0.00430 0.07290 1.0000;
  10  32 0.00000  0.02000 0.00000 1.0700;
  12  11 0.00160  0.04350 0.00000 1.0060;
  12  13 0.00160  0.04350 0.00000 1.0060;
  13  14 0.00090  0.01010 0.17230 1.0000;
  14  15 0.00180  0.02170 0.36600 1.0000;
  15  16 0.00090  0.00940 0.17100 1.0000;
  16  17 0.00070  0.00890 0.13420 1.0000;
  16  19 0.00160  0.01950 0.30400 1.0000;
  16  21 0.00080  0.01350 0.25480 1.0000;
  16  24 0.00030  0.00590 0.06800 1.0000;
  17  18 0.00070  0.00820 0.13190 1.0000;
  17  27 0.00130  0.01730 0.32160 1.0000;
  19  33 0.00070  0.01420 0.00000 1.0700;
  19  20 0.00070  0.01380 0.00000 1.0600;
  20  34 0.00090  0.01800 0.00000 1.0090;
  21  22 0.00080  0.01400 0.25650 1.0000;
  22  23 0.00060  0.00960 0.18460 1.0000;
  22  35 0.00000  0.01430 0.00000 1.0250;
  23  24 0.00220  0.03500 0.36100 1.0000;
  23  36 0.00050  0.02720 0.00000 1.0000;
  25  26 0.00320  0.03230 0.51300 1.0000;
  25  37 0.00060  0.02320 0.00000 1.0250;
  26  27 0.00140  0.01470 0.23960 1.0000;
  26  28 0.00430  0.04740 0.78020 1.0000;
  26  29 0.00570  0.06250 1.02900 1.0000;
  28  29 0.00140  0.01510 0.24900 1.0000;
  29  38 0.00080  0.01560 0.00000 1.0250;
  31   6 0.00000  0.02500 0.00000 0.9000];
% 31   6 0.00000  0.02500 0.00000 1.0000];

end